Version 4
SHEET 1 1892 680
WIRE 0 -800 -208 -800
WIRE 208 -800 0 -800
WIRE 656 -800 272 -800
WIRE 704 -800 656 -800
WIRE 0 -784 0 -800
WIRE 0 -704 0 -720
WIRE -208 -528 -208 -800
WIRE 80 -528 -208 -528
WIRE 432 -512 320 -512
WIRE 656 -496 656 -800
WIRE 320 -480 320 -512
WIRE 80 -432 80 -448
WIRE 192 -432 80 -432
WIRE 256 -432 192 -432
WIRE -208 -416 -208 -528
WIRE 480 -416 384 -416
WIRE 608 -416 480 -416
WIRE 80 -400 80 -432
WIRE 432 -336 432 -512
WIRE 480 -336 432 -336
WIRE 560 -336 480 -336
WIRE 656 -336 656 -400
WIRE 656 -336 560 -336
WIRE -208 -272 -208 -352
WIRE -208 -272 -224 -272
WIRE -208 -64 -208 -272
WIRE 48 -64 -208 -64
WIRE 416 -64 336 -64
WIRE 544 -64 416 -64
WIRE 416 -48 416 -64
WIRE 544 -32 544 -64
WIRE -208 32 -208 -64
WIRE 48 32 -208 32
WIRE 416 32 416 16
WIRE 416 32 336 32
WIRE 448 32 416 32
WIRE -208 128 -208 32
WIRE 48 128 -208 128
WIRE 544 128 544 48
WIRE 544 128 336 128
WIRE 560 128 544 128
WIRE 656 128 656 -336
WIRE 656 128 640 128
WIRE 432 224 336 224
WIRE 512 224 512 32
WIRE 512 224 432 224
WIRE 544 224 512 224
WIRE 656 224 656 128
WIRE 656 224 544 224
WIRE 656 240 656 224
WIRE 432 288 432 224
WIRE 48 416 -16 416
WIRE 432 416 432 368
WIRE 432 416 336 416
WIRE 496 416 432 416
WIRE -16 464 -16 416
FLAG 192 464 0
FLAG -208 -800 Vin
IOPIN -208 -800 In
FLAG 704 -800 Vout
IOPIN 704 -800 Out
FLAG -16 464 0
FLAG -288 -272 0
FLAG 576 416 0
FLAG 544 288 0
FLAG 0 -624 0
FLAG 656 464 0
FLAG -720 -624 0
FLAG -720 -704 Vin
IOPIN -720 -704 Out
FLAG 80 -320 0
FLAG 320 -224 0
FLAG 1008 -432 0
FLAG 1008 -512 Vout
IOPIN 1008 -512 In
FLAG 560 -272 0
FLAG 192 -368 0
SYMBOL PowerProducts\\LT3652 192 176 R0
SYMATTR InstName U1
SYMBOL res 64 -544 R0
SYMATTR InstName R1
SYMATTR Value 10k
SYMBOL cap -224 -288 R90
WINDOW 0 0 32 VBottom 2
WINDOW 3 32 32 VTop 2
SYMATTR InstName C1
SYMATTR Value 10µ
SYMBOL zener -224 -416 R0
SYMATTR InstName D1
SYMBOL res 416 272 R0
SYMATTR InstName R5
SYMATTR Value 909.1k
SYMBOL res 592 400 R90
WINDOW 0 0 56 VBottom 2
WINDOW 3 32 56 VTop 2
SYMATTR InstName R6
SYMATTR Value 344.8k
SYMBOL cap 528 224 R0
SYMATTR InstName C2
SYMATTR Value 10µ
SYMBOL LED -16 -784 R0
SYMATTR InstName D2
SYMBOL res -16 -720 R0
SYMATTR InstName R7
SYMATTR Value 567
SYMBOL cap 400 -48 R0
SYMATTR InstName C3
SYMATTR Value 1µ
SYMBOL ind 528 -48 R0
SYMATTR InstName L1
SYMATTR Value 25µ
SYMBOL res 656 112 R90
WINDOW 0 0 56 VBottom 2
WINDOW 3 32 56 VTop 2
SYMATTR InstName R8
SYMATTR Value 0.057
SYMBOL diode 512 16 R90
WINDOW 0 0 32 VBottom 2
WINDOW 3 32 32 VTop 2
SYMATTR InstName D3
SYMBOL voltage 656 368 R0
WINDOW 123 0 0 Left 0
WINDOW 39 0 0 Left 0
SYMATTR InstName V1
SYMATTR Value 11.5
SYMBOL res 640 288 R0
SYMATTR InstName R3
SYMATTR Value 23m
SYMBOL cap 640 240 R0
SYMATTR InstName C4
SYMATTR Value 5600
SYMBOL voltage -720 -720 R0
WINDOW 123 0 0 Left 0
WINDOW 39 0 0 Left 0
SYMATTR InstName V2
SYMATTR Value PULSE(0 19 0.001 0 0 0.006 0.012)
SYMBOL schottky 208 -784 R270
WINDOW 0 32 32 VTop 2
WINDOW 3 0 32 VBottom 2
SYMATTR InstName D4
SYMATTR Value RBR10BM40A
SYMATTR Description Diode
SYMATTR Type diode
SYMBOL nmos 608 -496 R0
SYMATTR InstName M1
SYMATTR Value IPP096N03L
SYMBOL Comparators\\LT6700-1 320 -352 R0
SYMATTR InstName U2
SYMBOL res 64 -416 R0
SYMATTR InstName R2
SYMATTR Value 2.5k
SYMBOL res 992 -528 R0
SYMATTR InstName R4
SYMATTR Value 5
SYMBOL cap 544 -336 R0
SYMATTR InstName C5
SYMATTR Value 10µ
SYMBOL res 464 -432 R0
SYMATTR InstName R9
SYMATTR Value 10k
SYMBOL cap 176 -432 R0
SYMATTR InstName C6
SYMATTR Value 220n
TEXT 760 248 Left 2 !.ic V(n008) = 11.5
TEXT -792 488 Left 2 !.tran 0 .03 0 .01
